
     RDKit          3D

 21 21  0  0  0  0  0  0  0  0999 V2000
    3.3291    0.3654   -0.0602 C   0  0  0  0  0  0  0  0  0  0  0  0
    2.5708   -0.8481   -0.0927 O   0  0  0  0  0  0  0  0  0  0  0  0
    1.2307   -0.5646    0.0002 C   0  0  0  0  0  0  0  0  0  0  0  0
    0.5039   -0.4227   -1.1834 C   0  0  0  0  0  0  0  0  0  0  0  0
    1.1106   -0.5811   -2.3987 O   0  0  0  0  0  0  0  0  0  0  0  0
   -0.8559   -0.1331   -1.1622 C   0  0  0  0  0  0  0  0  0  0  0  0
   -1.5248    0.0004    0.0628 C   0  0  0  0  0  0  0  0  0  0  0  0
   -3.0055    0.2721    0.0823 C   0  0  0  0  0  0  0  0  0  0  0  0
   -3.3519    1.0650    1.2096 O   0  0  0  0  0  0  0  0  0  0  0  0
   -0.8038   -0.1989    1.2538 C   0  0  0  0  0  0  0  0  0  0  0  0
    0.5658   -0.4845    1.2244 C   0  0  0  0  0  0  0  0  0  0  0  0
    1.4599   -0.7810    2.8704 Br  0  0  0  0  0  0  0  0  0  0  0  0
    4.3892    0.0955   -0.0749 H   0  0  0  0  0  0  0  0  0  0  0  0
    3.1236    0.9784   -0.9445 H   0  0  0  0  0  0  0  0  0  0  0  0
    3.1391    0.9427    0.8506 H   0  0  0  0  0  0  0  0  0  0  0  0
    2.0010   -0.9316   -2.2052 H   0  0  0  0  0  0  0  0  0  0  0  0
   -1.3888   -0.0223   -2.1033 H   0  0  0  0  0  0  0  0  0  0  0  0
   -3.3091    0.8182   -0.8170 H   0  0  0  0  0  0  0  0  0  0  0  0
   -3.5531   -0.6746    0.1316 H   0  0  0  0  0  0  0  0  0  0  0  0
   -4.3070    1.2330    1.1487 H   0  0  0  0  0  0  0  0  0  0  0  0
   -1.3237   -0.1282    2.2080 H   0  0  0  0  0  0  0  0  0  0  0  0
  1  2  1  0
  2  3  1  0
  3  4  2  0
  4  5  1  0
  4  6  1  0
  6  7  2  0
  7  8  1  0
  8  9  1  0
  7 10  1  0
 10 11  2  0
 11 12  1  0
 11  3  1  0
  1 13  1  0
  1 14  1  0
  1 15  1  0
  5 16  1  0
  6 17  1  0
  8 18  1  0
  8 19  1  0
  9 20  1  0
 10 21  1  0
M  END
$$$$
