
     RDKit          3D

 54 56  0  0  0  0  0  0  0  0999 V2000
    8.3823    1.2478   -0.5585 C   0  0  0  0  0  0  0  0  0  0  0  0
    7.7606    0.3539    0.4820 C   0  0  0  0  0  0  0  0  0  0  0  0
    8.0298    0.5109    1.6734 O   0  0  0  0  0  0  0  0  0  0  0  0
    6.8807   -0.6258    0.0451 N   0  0  0  0  0  0  0  0  0  0  0  0
    6.5358   -0.8718   -1.3482 C   0  0  0  0  0  0  0  0  0  0  0  0
    6.3231   -1.5453    1.0405 C   0  0  0  0  0  0  0  0  0  0  0  0
    5.1878   -0.9363    1.8786 C   0  0  0  0  0  0  0  0  0  0  0  0
    3.9267   -0.6813    1.0861 C   0  0  0  0  0  0  0  0  0  0  0  0
    3.0125   -1.7167    0.8526 C   0  0  0  0  0  0  0  0  0  0  0  0
    1.8577   -1.4853    0.0982 C   0  0  0  0  0  0  0  0  0  0  0  0
    0.6890   -2.9533   -0.2055 Br  0  0  0  0  0  0  0  0  0  0  0  0
    1.5931   -0.2111   -0.4210 C   0  0  0  0  0  0  0  0  0  0  0  0
    0.4748   -0.0025   -1.1884 O   0  0  0  0  0  0  0  0  0  0  0  0
   -0.6283    0.4417   -0.3832 C   0  0  0  0  0  0  0  0  0  0  0  0
   -1.9163    0.0862   -1.1150 C   0  0  0  0  0  0  0  0  0  0  0  0
   -3.1411    0.5453   -0.3342 C   0  0  0  0  0  0  0  0  0  0  0  0
   -4.3433    0.0481   -0.9733 N   0  0  0  0  0  0  0  0  0  0  0  0
   -5.6254    0.4403   -0.5995 C   0  0  0  0  0  0  0  0  0  0  0  0
   -5.8302    1.6570    0.0560 N   0  0  0  0  0  0  0  0  0  0  0  0
   -7.0522    1.9838    0.3575 C   0  0  0  0  0  0  0  0  0  0  0  0
   -8.1812    1.2400    0.0955 N   0  0  0  0  0  0  0  0  0  0  0  0
   -9.4944    1.6538    0.5403 C   0  0  0  0  0  0  0  0  0  0  0  0
   -8.0082    0.0240   -0.5073 C   0  0  0  0  0  0  0  0  0  0  0  0
   -8.8327   -0.9211   -0.8506 N   0  0  0  0  0  0  0  0  0  0  0  0
   -8.0055   -1.8810   -1.4229 C   0  0  0  0  0  0  0  0  0  0  0  0
   -6.7290   -1.6262   -1.4658 N   0  0  0  0  0  0  0  0  0  0  0  0
   -6.6540   -0.3913   -0.8813 C   0  0  0  0  0  0  0  0  0  0  0  0
    2.5220    0.8159   -0.2186 C   0  0  0  0  0  0  0  0  0  0  0  0
    2.2944    2.5407   -0.9783 Br  0  0  0  0  0  0  0  0  0  0  0  0
    3.6744    0.5848    0.5406 C   0  0  0  0  0  0  0  0  0  0  0  0
    7.6194    1.8995   -0.9946 H   0  0  0  0  0  0  0  0  0  0  0  0
    8.8757    0.6546   -1.3324 H   0  0  0  0  0  0  0  0  0  0  0  0
    9.1428    1.8757   -0.0840 H   0  0  0  0  0  0  0  0  0  0  0  0
    6.8147   -0.0436   -2.0012 H   0  0  0  0  0  0  0  0  0  0  0  0
    7.0603   -1.7737   -1.6761 H   0  0  0  0  0  0  0  0  0  0  0  0
    5.4575   -1.0330   -1.4369 H   0  0  0  0  0  0  0  0  0  0  0  0
    5.9919   -2.4598    0.5342 H   0  0  0  0  0  0  0  0  0  0  0  0
    7.1351   -1.8360    1.7182 H   0  0  0  0  0  0  0  0  0  0  0  0
    4.9457   -1.6219    2.7006 H   0  0  0  0  0  0  0  0  0  0  0  0
    5.5132   -0.0044    2.3565 H   0  0  0  0  0  0  0  0  0  0  0  0
    3.2058   -2.7088    1.2562 H   0  0  0  0  0  0  0  0  0  0  0  0
   -0.6240   -0.0309    0.6070 H   0  0  0  0  0  0  0  0  0  0  0  0
   -0.5614    1.5260   -0.2509 H   0  0  0  0  0  0  0  0  0  0  0  0
   -1.9119    0.5417   -2.1128 H   0  0  0  0  0  0  0  0  0  0  0  0
   -1.9508   -0.9956   -1.2887 H   0  0  0  0  0  0  0  0  0  0  0  0
   -3.1540    1.6412   -0.2949 H   0  0  0  0  0  0  0  0  0  0  0  0
   -3.0967    0.1715    0.6950 H   0  0  0  0  0  0  0  0  0  0  0  0
   -4.3256   -0.9328   -1.2553 H   0  0  0  0  0  0  0  0  0  0  0  0
   -7.2494    2.9369    0.8770 H   0  0  0  0  0  0  0  0  0  0  0  0
  -10.2627    1.3928   -0.1966 H   0  0  0  0  0  0  0  0  0  0  0  0
   -9.5442    2.7375    0.6887 H   0  0  0  0  0  0  0  0  0  0  0  0
   -9.7436    1.1659    1.4882 H   0  0  0  0  0  0  0  0  0  0  0  0
   -8.4337   -2.8157   -1.8171 H   0  0  0  0  0  0  0  0  0  0  0  0
    4.3927    1.3877    0.6982 H   0  0  0  0  0  0  0  0  0  0  0  0
  1  2  1  0
  2  3  2  0
  2  4  1  0
  4  5  1  0
  4  6  1  0
  6  7  1  0
  7  8  1  0
  8  9  1  0
  9 10  2  0
 10 11  1  0
 10 12  1  0
 12 13  1  0
 13 14  1  0
 14 15  1  0
 15 16  1  0
 16 17  1  0
 17 18  1  0
 18 19  1  0
 19 20  2  0
 20 21  1  0
 21 22  1  0
 21 23  1  0
 23 24  2  0
 24 25  1  0
 25 26  2  0
 26 27  1  0
 12 28  2  0
 28 29  1  0
 28 30  1  0
 30  8  2  0
 27 18  2  0
 27 23  1  0
  1 31  1  0
  1 32  1  0
  1 33  1  0
  5 34  1  0
  5 35  1  0
  5 36  1  0
  6 37  1  0
  6 38  1  0
  7 39  1  0
  7 40  1  0
  9 41  1  0
 14 42  1  0
 14 43  1  0
 15 44  1  0
 15 45  1  0
 16 46  1  0
 16 47  1  0
 17 48  1  0
 20 49  1  0
 22 50  1  0
 22 51  1  0
 22 52  1  0
 25 53  1  0
 30 54  1  0
M  END
$$$$
