
     RDKit          3D

137139  0  0  0  0  0  0  0  0999 V2000
  -12.5730   -2.7764   -0.8379 C   0  0  0  0  0  0  0  0  0  0  0  0
  -12.7719   -2.4390    0.6326 C   0  0  0  0  0  0  0  0  0  0  0  0
  -12.4576   -0.9722    0.9523 C   0  0  1  0  0  0  0  0  0  0  0  0
  -13.0722   -0.5015    2.2408 C   0  0  0  0  0  0  0  0  0  0  0  0
  -12.5083   -0.3146    3.4431 C   0  0  0  0  0  0  0  0  0  0  0  0
  -11.1135   -0.6492    3.8629 C   0  0  0  0  0  0  0  0  0  0  0  0
  -10.3768   -1.6385    2.9640 C   0  0  0  0  0  0  0  0  0  0  0  0
  -10.0391   -1.1158    1.5550 C   0  0  2  0  0  0  0  0  0  0  0  0
   -9.3939   -2.2387    0.7079 C   0  0  0  0  0  0  0  0  0  0  0  0
   -7.9032   -2.3215    0.9689 C   0  0  0  0  0  0  0  0  0  0  0  0
   -7.1199   -3.1917   -0.0219 C   0  0  0  0  0  0  0  0  0  0  0  0
   -5.7925   -2.4471   -0.2472 C   0  0  0  0  0  0  0  0  0  0  0  0
   -6.2050   -1.0323   -0.0159 C   0  0  0  0  0  0  0  0  0  0  0  0
   -5.5852    0.1703   -0.3216 C   0  0  0  0  0  0  0  0  0  0  0  0
   -4.2871    0.2137   -1.0080 C   0  0  0  0  0  0  0  0  0  0  0  0
   -3.3652    0.9176   -0.6448 O   0  0  0  0  0  0  0  0  0  0  0  0
   -4.3297   -0.6195   -2.0691 O   0  0  0  0  0  0  0  0  0  0  0  0
   -3.1682   -0.6373   -2.9206 C   0  0  0  0  0  0  0  0  0  0  0  0
   -2.3301   -1.8892   -2.6581 C   0  0  0  0  0  0  0  0  0  0  0  0
   -1.6573   -1.9358   -1.2826 C   0  0  0  0  0  0  0  0  0  0  0  0
   -0.5287   -0.9108   -1.1341 C   0  0  0  0  0  0  0  0  0  0  0  0
    0.1344   -1.0084    0.2425 C   0  0  0  0  0  0  0  0  0  0  0  0
    1.3423   -0.0757    0.3917 C   0  0  0  0  0  0  0  0  0  0  0  0
    0.9539    1.4016    0.4839 C   0  0  0  0  0  0  0  0  0  0  0  0
    2.1162    2.3357    0.8390 C   0  0  0  0  0  0  0  0  0  0  0  0
    3.1693    2.5088   -0.2600 C   0  0  0  0  0  0  0  0  0  0  0  0
    4.3591    1.5571   -0.1125 C   0  0  0  0  0  0  0  0  0  0  0  0
    5.3950    1.7792   -1.2211 C   0  0  0  0  0  0  0  0  0  0  0  0
    6.5714    0.8145   -1.0562 C   0  0  0  0  0  0  0  0  0  0  0  0
    7.6183    0.9889   -2.1569 C   0  0  0  0  0  0  0  0  0  0  0  0
    8.7370   -0.0539   -2.0747 C   0  0  0  0  0  0  0  0  0  0  0  0
    9.6555    0.1408   -0.8639 C   0  0  0  0  0  0  0  0  0  0  0  0
   10.7120   -0.9532   -0.7561 C   0  0  0  0  0  0  0  0  0  0  0  0
   10.6677   -1.9523   -1.4792 O   0  0  0  0  0  0  0  0  0  0  0  0
   11.7064   -0.7772    0.2093 N   0  0  0  0  0  0  0  0  0  0  0  0
   12.5983   -1.9003    0.4881 C   0  0  0  0  0  0  0  0  0  0  0  0
   12.2390   -2.7014    1.7467 C   0  0  0  0  0  0  0  0  0  0  0  0
   10.8568   -3.3538    1.7307 C   0  0  0  0  0  0  0  0  0  0  0  0
    9.7964   -2.4371    2.1480 N   0  0  0  0  0  0  0  0  0  0  0  0
   11.8461    0.4281    1.0397 C   0  0  0  0  0  0  0  0  0  0  0  0
   12.6855    1.5426    0.3715 C   0  0  0  0  0  0  0  0  0  0  0  0
   12.4492    2.7686    1.0702 O   0  0  0  0  0  0  0  0  0  0  0  0
   14.1957    1.2773    0.3253 C   0  0  0  0  0  0  0  0  0  0  0  0
   14.8459    1.1221    1.6995 C   0  0  0  0  0  0  0  0  0  0  0  0
   16.2762    0.8698    1.5488 N   0  0  0  0  0  0  0  0  0  0  0  0
   -6.2338    1.3387    0.1004 C   0  0  0  0  0  0  0  0  0  0  0  0
   -5.7160    2.7305   -0.1970 C   0  0  0  0  0  0  0  0  0  0  0  0
   -5.8701    3.1233   -1.6703 C   0  0  0  0  0  0  0  0  0  0  0  0
   -7.3203    3.4793   -2.0330 C   0  0  0  0  0  0  0  0  0  0  0  0
   -7.5837    3.5339   -3.5421 C   0  0  0  0  0  0  0  0  0  0  0  0
   -6.6648    4.4915   -4.2921 C   0  0  0  0  0  0  0  0  0  0  0  0
   -7.4062    2.2216   -4.0722 O   0  0  0  0  0  0  0  0  0  0  0  0
   -7.4246    1.3081    0.7742 N   0  0  0  0  0  0  0  0  0  0  0  0
   -7.9562    0.1038    1.0398 C   0  0  0  0  0  0  0  0  0  0  0  0
   -7.3550   -1.0184    0.6705 N   0  0  0  0  0  0  0  0  0  0  0  0
   -9.1267    0.0072    1.7431 N   0  0  0  0  0  0  0  0  0  0  0  0
  -11.1039   -0.5566    0.8148 O   0  0  0  0  0  0  0  0  0  0  0  0
    0.0000    0.0000    0.0000 Cl  0  0  0  0  0  0  0  0  0  0  0  0
  -11.5205   -2.7201   -1.1312 H   0  0  0  0  0  0  0  0  0  0  0  0
  -13.1425   -2.0955   -1.4842 H   0  0  0  0  0  0  0  0  0  0  0  0
  -12.9174   -3.7968   -1.0368 H   0  0  0  0  0  0  0  0  0  0  0  0
  -13.8165   -2.6525    0.8881 H   0  0  0  0  0  0  0  0  0  0  0  0
  -12.1622   -3.1222    1.2243 H   0  0  0  0  0  0  0  0  0  0  0  0
  -12.9740   -0.3750    0.1859 H   0  0  0  0  0  0  0  0  0  0  0  0
  -14.1286   -0.2330    2.1524 H   0  0  0  0  0  0  0  0  0  0  0  0
  -13.1384    0.1003    4.2366 H   0  0  0  0  0  0  0  0  0  0  0  0
  -11.1819   -1.1039    4.8600 H   0  0  0  0  0  0  0  0  0  0  0  0
  -10.5394    0.2773    3.9902 H   0  0  0  0  0  0  0  0  0  0  0  0
   -9.4506   -1.9220    3.4781 H   0  0  0  0  0  0  0  0  0  0  0  0
  -10.9678   -2.5595    2.9082 H   0  0  0  0  0  0  0  0  0  0  0  0
   -9.8670   -3.2076    0.8966 H   0  0  0  0  0  0  0  0  0  0  0  0
   -9.5623   -2.0264   -0.3567 H   0  0  0  0  0  0  0  0  0  0  0  0
   -7.6492   -2.5669    2.0089 H   0  0  0  0  0  0  0  0  0  0  0  0
   -6.9669   -4.2126    0.3429 H   0  0  0  0  0  0  0  0  0  0  0  0
   -7.6539   -3.2651   -0.9812 H   0  0  0  0  0  0  0  0  0  0  0  0
   -5.4232   -2.6378   -1.2606 H   0  0  0  0  0  0  0  0  0  0  0  0
   -5.0385   -2.7448    0.4898 H   0  0  0  0  0  0  0  0  0  0  0  0
   -3.5399   -0.6730   -3.9510 H   0  0  0  0  0  0  0  0  0  0  0  0
   -2.5774    0.2787   -2.8328 H   0  0  0  0  0  0  0  0  0  0  0  0
   -1.5667   -1.9823   -3.4385 H   0  0  0  0  0  0  0  0  0  0  0  0
   -2.9821   -2.7668   -2.7399 H   0  0  0  0  0  0  0  0  0  0  0  0
   -1.2399   -2.9409   -1.1373 H   0  0  0  0  0  0  0  0  0  0  0  0
   -2.3993   -1.7976   -0.4913 H   0  0  0  0  0  0  0  0  0  0  0  0
    0.2205   -1.0829   -1.9156 H   0  0  0  0  0  0  0  0  0  0  0  0
   -0.9157    0.1022   -1.2838 H   0  0  0  0  0  0  0  0  0  0  0  0
    0.4733   -2.0390    0.4060 H   0  0  0  0  0  0  0  0  0  0  0  0
   -0.6016   -0.7925    1.0275 H   0  0  0  0  0  0  0  0  0  0  0  0
    1.8867   -0.3588    1.3017 H   0  0  0  0  0  0  0  0  0  0  0  0
    2.0180   -0.2350   -0.4540 H   0  0  0  0  0  0  0  0  0  0  0  0
    0.5000    1.7367   -0.4564 H   0  0  0  0  0  0  0  0  0  0  0  0
    0.1879    1.5147    1.2603 H   0  0  0  0  0  0  0  0  0  0  0  0
    1.6793    3.3243    1.0389 H   0  0  0  0  0  0  0  0  0  0  0  0
    2.5835    2.0203    1.7776 H   0  0  0  0  0  0  0  0  0  0  0  0
    3.5535    3.5356   -0.1967 H   0  0  0  0  0  0  0  0  0  0  0  0
    2.7073    2.4062   -1.2501 H   0  0  0  0  0  0  0  0  0  0  0  0
    4.0195    0.5177   -0.1486 H   0  0  0  0  0  0  0  0  0  0  0  0
    4.8309    1.7096    0.8650 H   0  0  0  0  0  0  0  0  0  0  0  0
    4.9267    1.6295   -2.2000 H   0  0  0  0  0  0  0  0  0  0  0  0
    5.7569    2.8122   -1.1869 H   0  0  0  0  0  0  0  0  0  0  0  0
    7.0253    0.9771   -0.0761 H   0  0  0  0  0  0  0  0  0  0  0  0
    6.2014   -0.2135   -1.0678 H   0  0  0  0  0  0  0  0  0  0  0  0
    8.0359    2.0001   -2.1183 H   0  0  0  0  0  0  0  0  0  0  0  0
    7.1265    0.8955   -3.1323 H   0  0  0  0  0  0  0  0  0  0  0  0
    8.2958   -1.0593   -2.0675 H   0  0  0  0  0  0  0  0  0  0  0  0
    9.3413    0.0124   -2.9875 H   0  0  0  0  0  0  0  0  0  0  0  0
   10.1318    1.1235   -0.9374 H   0  0  0  0  0  0  0  0  0  0  0  0
    9.0630    0.0942    0.0541 H   0  0  0  0  0  0  0  0  0  0  0  0
   13.6153   -1.5140    0.5911 H   0  0  0  0  0  0  0  0  0  0  0  0
   12.6220   -2.5836   -0.3688 H   0  0  0  0  0  0  0  0  0  0  0  0
   12.3541   -2.0788    2.6428 H   0  0  0  0  0  0  0  0  0  0  0  0
   12.9845   -3.5015    1.8419 H   0  0  0  0  0  0  0  0  0  0  0  0
   10.8562   -4.2016    2.4261 H   0  0  0  0  0  0  0  0  0  0  0  0
   10.6289   -3.7509    0.7358 H   0  0  0  0  0  0  0  0  0  0  0  0
    8.9054   -2.9273    2.1158 H   0  0  0  0  0  0  0  0  0  0  0  0
    9.9361   -2.1725    3.1227 H   0  0  0  0  0  0  0  0  0  0  0  0
   10.8470    0.8260    1.2575 H   0  0  0  0  0  0  0  0  0  0  0  0
   12.2470    0.1520    2.0231 H   0  0  0  0  0  0  0  0  0  0  0  0
   12.3340    1.6895   -0.6573 H   0  0  0  0  0  0  0  0  0  0  0  0
   12.8782    3.4806    0.5565 H   0  0  0  0  0  0  0  0  0  0  0  0
   14.6735    2.1268   -0.1818 H   0  0  0  0  0  0  0  0  0  0  0  0
   14.3948    0.3949   -0.2936 H   0  0  0  0  0  0  0  0  0  0  0  0
   14.6951    2.0263    2.3039 H   0  0  0  0  0  0  0  0  0  0  0  0
   14.4131    0.2792    2.2471 H   0  0  0  0  0  0  0  0  0  0  0  0
   16.7101    0.8384    2.4699 H   0  0  0  0  0  0  0  0  0  0  0  0
   16.7114    1.6526    1.0584 H   0  0  0  0  0  0  0  0  0  0  0  0
   -6.2488    3.4585    0.4277 H   0  0  0  0  0  0  0  0  0  0  0  0
   -4.6689    2.8031    0.1058 H   0  0  0  0  0  0  0  0  0  0  0  0
   -5.5014    2.3245   -2.3205 H   0  0  0  0  0  0  0  0  0  0  0  0
   -5.2408    3.9993   -1.8602 H   0  0  0  0  0  0  0  0  0  0  0  0
   -7.5733    4.4427   -1.5818 H   0  0  0  0  0  0  0  0  0  0  0  0
   -7.9984    2.7316   -1.6092 H   0  0  0  0  0  0  0  0  0  0  0  0
   -8.6257    3.8315   -3.7077 H   0  0  0  0  0  0  0  0  0  0  0  0
   -6.9580    4.5425   -5.3502 H   0  0  0  0  0  0  0  0  0  0  0  0
   -6.7202    5.5010   -3.8762 H   0  0  0  0  0  0  0  0  0  0  0  0
   -5.6225    4.1500   -4.2720 H   0  0  0  0  0  0  0  0  0  0  0  0
   -8.2646    1.9379   -4.4491 H   0  0  0  0  0  0  0  0  0  0  0  0
   -9.6136    0.9013    1.7170 H   0  0  0  0  0  0  0  0  0  0  0  0
  1  2  1  0
  2  3  1  0
  3  4  1  0
  4  5  2  0
  5  6  1  0
  6  7  1  0
  7  8  1  0
  8  9  1  0
  9 10  1  0
 10 11  1  0
 11 12  1  0
 12 13  1  0
 13 14  2  0
 14 15  1  0
 15 16  2  0
 15 17  1  0
 17 18  1  0
 18 19  1  0
 19 20  1  0
 20 21  1  0
 21 22  1  0
 22 23  1  0
 23 24  1  0
 24 25  1  0
 25 26  1  0
 26 27  1  0
 27 28  1  0
 28 29  1  0
 29 30  1  0
 30 31  1  0
 31 32  1  0
 32 33  1  0
 33 34  2  0
 33 35  1  0
 35 36  1  0
 36 37  1  0
 37 38  1  0
 38 39  1  0
 35 40  1  0
 40 41  1  0
 41 42  1  0
 41 43  1  0
 43 44  1  0
 44 45  1  0
 14 46  1  0
 46 47  1  0
 47 48  1  0
 48 49  1  0
 49 50  1  0
 50 51  1  0
 50 52  1  0
 46 53  2  0
 53 54  1  0
 54 55  2  0
 54 56  1  0
  8 57  1  6
 57  3  1  0
 56  8  1  0
 55 10  1  0
 55 13  1  0
  1 59  1  0
  1 60  1  0
  1 61  1  0
  2 62  1  0
  2 63  1  0
  3 64  1  6
  4 65  1  0
  5 66  1  0
  6 67  1  0
  6 68  1  0
  7 69  1  0
  7 70  1  0
  9 71  1  0
  9 72  1  0
 10 73  1  0
 11 74  1  0
 11 75  1  0
 12 76  1  0
 12 77  1  0
 18 78  1  0
 18 79  1  0
 19 80  1  0
 19 81  1  0
 20 82  1  0
 20 83  1  0
 21 84  1  0
 21 85  1  0
 22 86  1  0
 22 87  1  0
 23 88  1  0
 23 89  1  0
 24 90  1  0
 24 91  1  0
 25 92  1  0
 25 93  1  0
 26 94  1  0
 26 95  1  0
 27 96  1  0
 27 97  1  0
 28 98  1  0
 28 99  1  0
 29100  1  0
 29101  1  0
 30102  1  0
 30103  1  0
 31104  1  0
 31105  1  0
 32106  1  0
 32107  1  0
 36108  1  0
 36109  1  0
 37110  1  0
 37111  1  0
 38112  1  0
 38113  1  0
 39114  1  0
 39115  1  0
 40116  1  0
 40117  1  0
 41118  1  0
 42119  1  0
 43120  1  0
 43121  1  0
 44122  1  0
 44123  1  0
 45124  1  0
 45125  1  0
 47126  1  0
 47127  1  0
 48128  1  0
 48129  1  0
 49130  1  0
 49131  1  0
 50132  1  0
 51133  1  0
 51134  1  0
 51135  1  0
 52136  1  0
 56137  1  0
M  CHG  2  55   1  58  -1
M  END
$$$$
