
     RDKit          3D

 64 66  0  0  0  0  0  0  0  0999 V2000
    8.8240   -0.4103   -2.0190 C   0  0  0  0  0  0  0  0  0  0  0  0
    7.4364   -0.0621   -1.9620 O   0  0  0  0  0  0  0  0  0  0  0  0
    7.0776    0.5233   -0.7539 C   0  0  0  0  0  0  0  0  0  0  0  0
    6.8030   -0.2309    0.3309 C   0  0  0  0  0  0  0  0  0  0  0  0
    6.8924   -2.1157    0.3245 Br  0  0  0  0  0  0  0  0  0  0  0  0
    6.3097    0.3254    1.6354 C   0  0  0  0  0  0  0  0  0  0  0  0
    5.0535    1.2074    1.5313 C   0  0  2  0  0  0  0  0  0  0  0  0
    5.3378    2.5180    1.0334 O   0  0  0  0  0  0  0  0  0  0  0  0
    6.1500    2.7621   -0.0250 C   0  0  0  0  0  0  0  0  0  0  0  0
    6.9088    1.9796   -0.8183 C   0  0  0  0  0  0  0  0  0  0  0  0
    7.8535    2.8985   -2.1954 Br  0  0  0  0  0  0  0  0  0  0  0  0
    4.5905    1.3681    2.9076 O   0  0  0  0  0  0  0  0  0  0  0  0
    3.6321    0.3550    3.1713 N   0  0  0  0  0  0  0  0  0  0  0  0
    3.2104   -0.0454    2.0146 C   0  0  0  0  0  0  0  0  0  0  0  0
    2.1597   -1.1180    1.8504 C   0  0  0  0  0  0  0  0  0  0  0  0
    1.2038   -1.1561    2.6089 O   0  0  0  0  0  0  0  0  0  0  0  0
    2.3816   -1.9969    0.8153 N   0  0  0  0  0  0  0  0  0  0  0  0
    1.4781   -3.0827    0.5045 C   0  0  0  0  0  0  0  0  0  0  0  0
    0.4290   -2.7021   -0.5335 C   0  0  0  0  0  0  0  0  0  0  0  0
   -0.6356   -1.7540    0.0090 C   0  0  0  0  0  0  0  0  0  0  0  0
   -1.6121   -1.5589   -1.0288 O   0  0  0  0  0  0  0  0  0  0  0  0
   -2.7887   -1.0897   -0.4996 C   0  0  0  0  0  0  0  0  0  0  0  0
   -3.7912   -1.9891   -0.1158 C   0  0  0  0  0  0  0  0  0  0  0  0
   -3.5761   -3.8669   -0.3056 Br  0  0  0  0  0  0  0  0  0  0  0  0
   -4.9981   -1.5203    0.4119 C   0  0  0  0  0  0  0  0  0  0  0  0
   -5.2278   -0.1443    0.5417 C   0  0  0  0  0  0  0  0  0  0  0  0
   -6.5331    0.3672    1.1049 C   0  0  0  0  0  0  0  0  0  0  0  0
   -7.7070    0.3104    0.1140 C   0  0  0  0  0  0  0  0  0  0  0  0
   -7.5862    1.2356   -1.0147 N   0  0  0  0  0  0  0  0  0  0  0  0
   -7.1554    0.6699   -2.2876 C   0  0  0  0  0  0  0  0  0  0  0  0
   -7.8277    2.5682   -0.7801 C   0  0  0  0  0  0  0  0  0  0  0  0
   -7.7910    3.3862   -1.8575 N   0  0  0  0  0  0  0  0  0  0  0  0
   -8.0704    3.0444    0.3232 O   0  0  0  0  0  0  0  0  0  0  0  0
   -4.2383    0.7545    0.1189 C   0  0  0  0  0  0  0  0  0  0  0  0
   -3.0303    0.2858   -0.4071 C   0  0  0  0  0  0  0  0  0  0  0  0
   -1.7669    1.5685   -1.0084 Br  0  0  0  0  0  0  0  0  0  0  0  0
    3.7977    0.6487    0.8301 C   0  0  2  0  0  0  0  0  0  0  0  0
    4.0065   -0.1388   -0.3236 O   0  0  0  0  0  0  0  0  0  0  0  0
    9.1396   -0.3508   -3.0650 H   0  0  0  0  0  0  0  0  0  0  0  0
    8.9722   -1.4402   -1.6853 H   0  0  0  0  0  0  0  0  0  0  0  0
    9.4550    0.2650   -1.4303 H   0  0  0  0  0  0  0  0  0  0  0  0
    7.1243    0.9020    2.0963 H   0  0  0  0  0  0  0  0  0  0  0  0
    6.1165   -0.4847    2.3515 H   0  0  0  0  0  0  0  0  0  0  0  0
    6.1255    3.8401   -0.1809 H   0  0  0  0  0  0  0  0  0  0  0  0
    3.1446   -1.7946    0.1688 H   0  0  0  0  0  0  0  0  0  0  0  0
    2.0998   -3.8942    0.1105 H   0  0  0  0  0  0  0  0  0  0  0  0
    1.0024   -3.4412    1.4242 H   0  0  0  0  0  0  0  0  0  0  0  0
   -0.0644   -3.6143   -0.8913 H   0  0  0  0  0  0  0  0  0  0  0  0
    0.9043   -2.2542   -1.4146 H   0  0  0  0  0  0  0  0  0  0  0  0
   -1.0881   -2.1796    0.9130 H   0  0  0  0  0  0  0  0  0  0  0  0
   -0.1887   -0.7869    0.2589 H   0  0  0  0  0  0  0  0  0  0  0  0
   -5.7650   -2.2274    0.7213 H   0  0  0  0  0  0  0  0  0  0  0  0
   -6.3940    1.3873    1.4821 H   0  0  0  0  0  0  0  0  0  0  0  0
   -6.7847   -0.2392    1.9850 H   0  0  0  0  0  0  0  0  0  0  0  0
   -7.8502   -0.7052   -0.2747 H   0  0  0  0  0  0  0  0  0  0  0  0
   -8.6238    0.5714    0.6586 H   0  0  0  0  0  0  0  0  0  0  0  0
   -6.2596    0.0637   -2.1355 H   0  0  0  0  0  0  0  0  0  0  0  0
   -7.9583    0.0321   -2.6679 H   0  0  0  0  0  0  0  0  0  0  0  0
   -6.9239    1.4340   -3.0314 H   0  0  0  0  0  0  0  0  0  0  0  0
   -8.0635    4.3318   -1.6175 H   0  0  0  0  0  0  0  0  0  0  0  0
   -8.2518    3.0424   -2.6864 H   0  0  0  0  0  0  0  0  0  0  0  0
   -4.4204    1.8258    0.1927 H   0  0  0  0  0  0  0  0  0  0  0  0
    3.1048    1.4566    0.5634 H   0  0  0  0  0  0  0  0  0  0  0  0
    4.2474    0.4657   -1.0531 H   0  0  0  0  0  0  0  0  0  0  0  0
  1  2  1  0
  2  3  1  0
  3  4  2  0
  4  5  1  0
  4  6  1  0
  6  7  1  0
  7  8  1  6
  8  9  1  0
  9 10  2  0
 10 11  1  0
  7 12  1  0
 12 13  1  0
 13 14  2  0
 14 15  1  0
 15 16  2  0
 15 17  1  0
 17 18  1  0
 18 19  1  0
 19 20  1  0
 20 21  1  0
 21 22  1  0
 22 23  1  0
 23 24  1  0
 23 25  2  0
 25 26  1  0
 26 27  1  0
 27 28  1  0
 28 29  1  0
 29 30  1  0
 29 31  1  0
 31 32  1  0
 31 33  2  0
 26 34  2  0
 34 35  1  0
 35 36  1  0
 14 37  1  0
 37 38  1  0
 10  3  1  0
 35 22  2  0
 37  7  1  0
  1 39  1  0
  1 40  1  0
  1 41  1  0
  6 42  1  0
  6 43  1  0
  9 44  1  0
 17 45  1  0
 18 46  1  0
 18 47  1  0
 19 48  1  0
 19 49  1  0
 20 50  1  0
 20 51  1  0
 25 52  1  0
 27 53  1  0
 27 54  1  0
 28 55  1  0
 28 56  1  0
 30 57  1  0
 30 58  1  0
 30 59  1  0
 32 60  1  0
 32 61  1  0
 34 62  1  0
 37 63  1  6
 38 64  1  0
M  END
$$$$
