
     RDKit          3D

 59 60  0  0  0  0  0  0  0  0999 V2000
    6.5505    2.7824    1.4186 C   0  0  0  0  0  0  0  0  0  0  0  0
    5.3462    2.1215    0.7729 C   0  0  0  0  0  0  0  0  0  0  0  0
    5.5198    0.6157    0.7011 C   0  0  0  0  0  0  0  0  0  0  0  0
    5.0914   -0.0837    1.6223 O   0  0  0  0  0  0  0  0  0  0  0  0
    6.1908    0.0763   -0.3936 N   0  0  0  0  0  0  0  0  0  0  0  0
    6.6416    0.8499   -1.5415 C   0  0  0  0  0  0  0  0  0  0  0  0
    6.2174   -1.3841   -0.5316 C   0  0  0  0  0  0  0  0  0  0  0  0
    5.1803   -1.9405   -1.5223 C   0  0  0  0  0  0  0  0  0  0  0  0
    3.7435   -1.6520   -1.1540 C   0  0  0  0  0  0  0  0  0  0  0  0
    3.0018   -0.7051   -1.8715 C   0  0  0  0  0  0  0  0  0  0  0  0
    1.6820   -0.4146   -1.5109 C   0  0  0  0  0  0  0  0  0  0  0  0
    0.7843    0.9486   -2.4852 Br  0  0  0  0  0  0  0  0  0  0  0  0
    1.0705   -1.0906   -0.4468 C   0  0  0  0  0  0  0  0  0  0  0  0
   -0.2176   -0.7853   -0.0855 O   0  0  0  0  0  0  0  0  0  0  0  0
   -1.1599   -1.5891   -0.8110 C   0  0  0  0  0  0  0  0  0  0  0  0
   -2.5672   -1.1289   -0.4480 C   0  0  0  0  0  0  0  0  0  0  0  0
   -2.8791   -1.3727    1.0274 C   0  0  0  0  0  0  0  0  0  0  0  0
   -4.2140   -0.9258    1.3722 N   0  0  0  0  0  0  0  0  0  0  0  0
   -5.3329   -1.6699    1.0618 C   0  0  0  0  0  0  0  0  0  0  0  0
   -5.2786   -2.7916    0.5636 O   0  0  0  0  0  0  0  0  0  0  0  0
   -6.6540   -1.0154    1.4298 C   0  0  0  0  0  0  0  0  0  0  0  0
   -6.8415    0.3570    0.8241 C   0  0  0  0  0  0  0  0  0  0  0  0
   -6.9165    0.5100   -0.5694 C   0  0  0  0  0  0  0  0  0  0  0  0
   -7.0809    1.7751   -1.1374 C   0  0  0  0  0  0  0  0  0  0  0  0
   -7.1740    2.8884   -0.3092 C   0  0  0  0  0  0  0  0  0  0  0  0
   -7.3363    4.1423   -0.8198 O   0  0  0  0  0  0  0  0  0  0  0  0
   -7.1068    2.7561    1.0728 C   0  0  0  0  0  0  0  0  0  0  0  0
   -6.9422    1.4917    1.6412 C   0  0  0  0  0  0  0  0  0  0  0  0
    1.8210   -2.0101    0.2969 C   0  0  0  0  0  0  0  0  0  0  0  0
    1.0562   -2.9684    1.9988 I   0  0  0  0  0  0  0  0  0  0  0  0
    3.1437   -2.2972   -0.0637 C   0  0  0  0  0  0  0  0  0  0  0  0
    6.7181    2.3848    2.4251 H   0  0  0  0  0  0  0  0  0  0  0  0
    7.4652    2.6111    0.8438 H   0  0  0  0  0  0  0  0  0  0  0  0
    6.3950    3.8630    1.4988 H   0  0  0  0  0  0  0  0  0  0  0  0
    5.1432    2.5399   -0.2181 H   0  0  0  0  0  0  0  0  0  0  0  0
    4.4493    2.3248    1.3714 H   0  0  0  0  0  0  0  0  0  0  0  0
    6.9482    1.8588   -1.2574 H   0  0  0  0  0  0  0  0  0  0  0  0
    7.4993    0.3514   -2.0040 H   0  0  0  0  0  0  0  0  0  0  0  0
    5.8228    0.9201   -2.2643 H   0  0  0  0  0  0  0  0  0  0  0  0
    7.2239   -1.6626   -0.8651 H   0  0  0  0  0  0  0  0  0  0  0  0
    6.0804   -1.8545    0.4476 H   0  0  0  0  0  0  0  0  0  0  0  0
    5.3052   -3.0294   -1.5919 H   0  0  0  0  0  0  0  0  0  0  0  0
    5.3868   -1.5554   -2.5291 H   0  0  0  0  0  0  0  0  0  0  0  0
    3.4618   -0.1759   -2.7029 H   0  0  0  0  0  0  0  0  0  0  0  0
   -1.0182   -1.4716   -1.8919 H   0  0  0  0  0  0  0  0  0  0  0  0
   -1.0351   -2.6495   -0.5617 H   0  0  0  0  0  0  0  0  0  0  0  0
   -3.2928   -1.6554   -1.0788 H   0  0  0  0  0  0  0  0  0  0  0  0
   -2.6708   -0.0575   -0.6617 H   0  0  0  0  0  0  0  0  0  0  0  0
   -2.7964   -2.4396    1.2626 H   0  0  0  0  0  0  0  0  0  0  0  0
   -2.1863   -0.8234    1.6726 H   0  0  0  0  0  0  0  0  0  0  0  0
   -4.3380    0.0522    1.6052 H   0  0  0  0  0  0  0  0  0  0  0  0
   -7.4715   -1.6627    1.0864 H   0  0  0  0  0  0  0  0  0  0  0  0
   -6.7193   -0.9782    2.5240 H   0  0  0  0  0  0  0  0  0  0  0  0
   -6.8471   -0.3608   -1.2195 H   0  0  0  0  0  0  0  0  0  0  0  0
   -7.1369    1.8683   -2.2172 H   0  0  0  0  0  0  0  0  0  0  0  0
   -7.3689    4.0789   -1.7879 H   0  0  0  0  0  0  0  0  0  0  0  0
   -7.1869    3.6347    1.7073 H   0  0  0  0  0  0  0  0  0  0  0  0
   -6.8973    1.4028    2.7248 H   0  0  0  0  0  0  0  0  0  0  0  0
    3.7266   -3.0043    0.5240 H   0  0  0  0  0  0  0  0  0  0  0  0
  1  2  1  0
  2  3  1  0
  3  4  2  0
  3  5  1  0
  5  6  1  0
  5  7  1  0
  7  8  1  0
  8  9  1  0
  9 10  1  0
 10 11  2  0
 11 12  1  0
 11 13  1  0
 13 14  1  0
 14 15  1  0
 15 16  1  0
 16 17  1  0
 17 18  1  0
 18 19  1  0
 19 20  2  0
 19 21  1  0
 21 22  1  0
 22 23  1  0
 23 24  2  0
 24 25  1  0
 25 26  1  0
 25 27  2  0
 27 28  1  0
 13 29  2  0
 29 30  1  0
 29 31  1  0
 31  9  2  0
 28 22  2  0
  1 32  1  0
  1 33  1  0
  1 34  1  0
  2 35  1  0
  2 36  1  0
  6 37  1  0
  6 38  1  0
  6 39  1  0
  7 40  1  0
  7 41  1  0
  8 42  1  0
  8 43  1  0
 10 44  1  0
 15 45  1  0
 15 46  1  0
 16 47  1  0
 16 48  1  0
 17 49  1  0
 17 50  1  0
 18 51  1  0
 21 52  1  0
 21 53  1  0
 23 54  1  0
 24 55  1  0
 26 56  1  0
 27 57  1  0
 28 58  1  0
 31 59  1  0
M  END
$$$$
